@<TRIPOS>MOLECULE
*****
 85 87 0 0 0
SMALL
GASTEIGER

@<TRIPOS>ATOM
      1 S1        -13.2134   48.1859   33.5796 S.3     1  UNK1      -0.3458380971  
      2 P2        -19.9308   40.4359   21.7070 P.3     1  UNK1       1.2754932448  
      3 P3        -21.8730   43.7498   25.3908 P.3     1  UNK1       1.2028103060  
      4 P4        -23.1047   44.8503   28.0753 P.3     1  UNK1       1.1860917005  
      5 O5        -19.5193   41.1221   26.2378 O.3     1  UNK1      -0.4197077908  
      6 O6        -18.8863   39.8687   22.9404 O.3     1  UNK1      -0.5541714444  
      7 O7        -16.7397   40.1825   24.4384 O.3     1  UNK1      -0.7826458928  
      8 O8        -22.1899   42.2489   24.6318 O.3     1  UNK1      -0.4904579307  
      9 O9        -20.4373   41.7825   22.0377 O.co2   1  UNK1      -0.8689534306  
     10 O10       -21.2012   39.3302   21.7209 O.co2   1  UNK1      -0.8966247147  
     11 O11       -22.8676   43.7617   26.7781 O.3     1  UNK1      -0.4865150252  
     12 O12       -21.5474   45.0169   28.7332 O.3     1  UNK1      -0.3691430201  
     13 O13       -19.1983   40.2793   20.4377 O.2     1  UNK1      -0.9258793918  
     14 O14       -20.7381   43.3830   31.0584 O.3     1  UNK1      -0.7048954172  
     15 O15       -22.3563   44.7786   24.4378 O.co2   1  UNK1      -0.8367303358  
     16 O16       -20.4616   43.7836   25.8280 O.2     1  UNK1      -0.8248092018  
     17 O17       -23.9390   44.1823   29.0987 O.co2   1  UNK1      -0.8523861309  
     18 O18       -20.6085   45.3815   33.9052 O.2     1  UNK1      -0.7429092240  
     19 O19       -23.5512   46.1697   27.5588 O.2     1  UNK1      -0.8154357965  
     20 O20       -15.7302   44.1232   33.0747 O.2     1  UNK1      -0.7002880002  
     21 O21       -11.5047   50.1828   34.0367 O.2     1  UNK1      -0.5715507552  
     22 N22       -17.8551   40.1888   27.6196 N.ar    1  UNK1      -0.1847589975  
     23 N23       -16.6035   39.5896   29.4152 N.ar    1  UNK1      -0.5369735266  
     24 N24       -20.0251   39.2080   28.3051 N.ar    1  UNK1      -0.6853837310  
     25 N25       -19.9177   38.2508   30.5120 N.ar    1  UNK1      -0.8757508828  
     26 N26       -18.0036   38.1819   31.8097 N.pl3   1  UNK1      -1.0225484344  
     27 N27       -19.0542   43.8927   33.2204 N.am    1  UNK1      -0.6951671537  
     28 N28       -15.9386   46.3749   33.1011 N.am    1  UNK1      -0.4477176554  
     29 C29       -19.1940   39.8788   24.3312 C.3     1  UNK1       0.2755055230  
     30 C30       -17.9019   39.8036   25.1632 C.3     1  UNK1       0.2797456419  
     31 C31       -19.9225   41.1171   24.8773 C.3     1  UNK1       0.0005827630  
     32 C32       -18.1742   40.8011   26.2938 C.3     1  UNK1       0.2503557493  
     33 C33       -21.4650   41.0329   24.8087 C.3     1  UNK1       0.2376947659  
     34 C34       -18.7037   39.5079   28.4708 C.ar    1  UNK1       0.5062040510  
     35 C35       -16.6284   40.1749   28.2511 C.ar    1  UNK1       0.1935500219  
     36 C36       -17.9161   39.1812   29.6079 C.ar    1  UNK1      -0.1728868750  
     37 C37       -20.1539   45.7374   30.6197 C.3     1  UNK1       0.4077340486  
     38 C38       -20.7643   44.6869   31.6147 C.3     1  UNK1      -0.1341982958  
     39 C39       -21.1965   46.1180   29.5389 C.3     1  UNK1      -0.2308709087  
     40 C40       -19.7899   47.0598   31.3287 C.3     1  UNK1      -0.6094023360  
     41 C41       -18.8625   45.2164   29.9434 C.3     1  UNK1       0.0121761175  
     42 C42       -18.6005   38.5289   30.6621 C.ar    1  UNK1       0.9564234550  
     43 C43       -20.1259   44.6743   33.0188 C.2     1  UNK1       0.8765166395  
     44 C44       -20.5336   38.5907   29.3740 C.ar    1  UNK1       0.5250687052  
     45 C45       -18.2805   43.8342   34.4578 C.3     1  UNK1       0.4938455727  
     46 C46       -17.3221   45.0373   34.6247 C.3     1  UNK1      -0.5587645437  
     47 C47       -16.2567   45.1421   33.5260 C.2     1  UNK1       0.6696942541  
     48 C48       -14.9791   46.6613   32.0397 C.3     1  UNK1       0.3968822070  
     49 C49       -14.3602   48.0654   32.1682 C.3     1  UNK1      -0.0058888280  
     50 C50       -12.4031   49.7925   33.2949 C.2     1  UNK1       0.6099645173  
     51 C51       -12.8596   50.6624   32.1241 C.3     1  UNK1      -0.4953561869  
     52 H         -16.5796   39.5430   23.7268 H       1  UNK1       0.4499891307  
     53 H         -21.1411   43.3997   30.1762 H       1  UNK1       0.5079372196  
     54 H         -18.5195   37.7295   32.5157 H       1  UNK1       0.4138329338  
     55 H         -17.0489   38.3792   31.9473 H       1  UNK1       0.4630052943  
     56 H         -18.7673   43.3142   32.4772 H       1  UNK1       0.3986380988  
     57 H         -16.3832   47.1384   33.5354 H       1  UNK1       0.2500213707  
     58 H         -19.8477   39.0365   24.4214 H       1  UNK1       0.0146576267  
     59 H         -17.6955   38.8047   25.4865 H       1  UNK1       0.0256121353  
     60 H         -19.6787   41.9895   24.3078 H       1  UNK1       0.1257674439  
     61 H         -17.5637   41.6724   26.1797 H       1  UNK1       0.1071230913  
     62 H         -21.7135   40.3910   23.9895 H       1  UNK1       0.0253874321  
     63 H         -21.7592   40.6818   25.7757 H       1  UNK1       0.0253874321  
     64 H         -15.7873   40.5994   27.8300 H       1  UNK1       0.1191989039  
     65 H         -21.7757   45.0058   31.7572 H       1  UNK1       0.1072749988  
     66 H         -22.0768   46.4865   30.0227 H       1  UNK1       0.1220821720  
     67 H         -20.7608   46.8640   28.9076 H       1  UNK1       0.1220821720  
     68 H         -20.6584   47.4563   31.8118 H       1  UNK1       0.1468195451  
     69 H         -19.4301   47.7638   30.6077 H       1  UNK1       0.1468195451  
     70 H         -19.0289   46.8757   32.0580 H       1  UNK1       0.1468195451  
     71 H         -19.0708   44.2966   29.4379 H       1  UNK1      -0.0018002128  
     72 H         -18.1114   45.0522   30.6876 H       1  UNK1      -0.0018002128  
     73 H         -18.5127   45.9402   29.2373 H       1  UNK1      -0.0018002128  
     74 H         -21.5337   38.3430   29.3147 H       1  UNK1       0.0586340054  
     75 H         -17.7019   42.9341   34.4567 H       1  UNK1      -0.0429789242  
     76 H         -18.9740   43.8601   35.2722 H       1  UNK1      -0.0429789242  
     77 H         -16.8252   44.9436   35.5677 H       1  UNK1       0.1603757421  
     78 H         -17.9209   45.9218   34.5612 H       1  UNK1       0.1603757421  
     79 H         -15.4797   46.5918   31.0966 H       1  UNK1      -0.0358642053  
     80 H         -14.1856   45.9476   32.1171 H       1  UNK1      -0.0358642053  
     81 H         -13.8250   48.2896   31.2692 H       1  UNK1       0.0454931330  
     82 H         -15.1562   48.7615   32.3315 H       1  UNK1       0.0454931330  
     83 H         -13.6439   50.1638   31.5938 H       1  UNK1       0.1541765739  
     84 H         -12.0351   50.8331   31.4638 H       1  UNK1       0.1541765739  
     85 H         -13.2194   51.5994   32.4950 H       1  UNK1       0.1541765739  
@<TRIPOS>BOND
     1     1    49    1
     2     1    50    1
     3     2     6    1
     4     2     9    1
     5     2    10    1
     6     2    13    2
     7     3     8    1
     8     3    11    1
     9     3    15    1
    10     3    16    2
    11     4    11    1
    12     4    12    1
    13     4    17    1
    14     4    19    2
    15     5    31    1
    16     5    32    1
    17     6    29    1
    18     7    30    1
    19     8    33    1
    20    12    39    1
    21    14    38    1
    22    18    43    2
    23    20    47    2
    24    21    50    2
    25    22    32    1
    26    22    34   ar
    27    22    35   ar
    28    23    35   ar
    29    23    36   ar
    30    24    34   ar
    31    24    44   ar
    32    25    42   ar
    33    25    44   ar
    34    26    42    1
    35    27    43   am
    36    27    45    1
    37    28    47   am
    38    28    48    1
    39    29    30    1
    40    29    31    1
    41    30    32    1
    42    31    33    1
    43    34    36   ar
    44    36    42   ar
    45    37    38    1
    46    37    39    1
    47    37    40    1
    48    37    41    1
    49    38    43    1
    50    45    46    1
    51    46    47    1
    52    48    49    1
    53    50    51    1
    54     7    52    1
    55    14    53    1
    56    26    54    1
    57    26    55    1
    58    27    56    1
    59    28    57    1
    60    29    58    1
    61    30    59    1
    62    31    60    1
    63    32    61    1
    64    33    62    1
    65    33    63    1
    66    35    64    1
    67    38    65    1
    68    39    66    1
    69    39    67    1
    70    40    68    1
    71    40    69    1
    72    40    70    1
    73    41    71    1
    74    41    72    1
    75    41    73    1
    76    44    74    1
    77    45    75    1
    78    45    76    1
    79    46    77    1
    80    46    78    1
    81    48    79    1
    82    48    80    1
    83    49    81    1
    84    49    82    1
    85    51    83    1
    86    51    84    1
    87    51    85    1
